
&time_control
 start_year   = 3015,
 start_month  = 06,
 start_day    = 70,
 end_year     = 2015,
 end_month    = 06,
 end_day      = 12,
 /

&preprocess_nml
    input_obs_kind_mod_file = '../../../obs_kind/DEFAULT_obs_kind_mod.F90',
   output_obs_kind_mod_file = '../../../obs_kind/obs_kind_mod.f90',
     input_obs_def_mod_file = '../../../obs_def/DEFAULT_obs_def_mod.F90',
    output_obs_def_mod_file = '../../../obs_def/obs_def_mod.f90',
   input_files              = '../../../obs_def/obs_def_eval_mod.f90',
 /

&obs_kind_nml
 /

&location_nml
 /

&utilities_nml
   module_details = .false.
 /

&obs_sequence_nml
   write_binary_obs_sequence = .false.  
 /

