&time_control
 start_year   = 3015,
 start_month  = 06,
 start_day    = 70,
 end_year     = 2015,
 end_month    = 06,
 end_day      = 12,
 /

